<?xml version='1.0' encoding='UTF-8'?>
<configuration>
  <input>
        <net-file value="map_v7.4_smooth_curve.net.xml"/>
    <route-files value="map_v7.4_smooth_curve.rou.xml"/>
  </input>
  <num-clients value="1"/>
</configuration>
