<?xml version='1.0' encoding='UTF-8'?>
<!-- generated on 2021-07-19 21:54:59 by Eclipse SUMO netconvert Version 1.9.2
<configuration xmlns:xsi="http://www.w3.org/2001/XMLSchema-instance" xsi:noNamespaceSchemaLocation="http://sumo.dlr.de/xsd/netconvertConfiguration.xsd">

    <input>
        <type-files value="/home/runshengxu/project/OpenCDA/scripts/data/opendrive_netconvert.typ.xml"/>
        <opendrive-files value="../opencda/assets/Town06/Town06.xodr"/>
    </input>

    <output>
        <output-file value="/tmp/tmp2_tosx88/Town06.net.xml"/>
        <output.original-names value="true"/>
    </output>

    <processing>
        <geometry.remove value="true"/>
        <geometry.min-radius.fix value="true"/>
        <geometry.max-grade.fix value="false"/>
    </processing>

    <tls_building>
        <tls.discard-loaded value="true"/>
        <tls.left-green.time value="0"/>
    </tls_building>

    <junctions>
        <rectangular-lane-cut value="true"/>
    </junctions>

    <formats>
        <opendrive.import-all-lanes value="true"/>
        <opendrive.curve-resolution value="1"/>
    </formats>

    <report>
        <aggregate-warnings value="5"/>
    </report>

</configuration>
-->
<net xmlns:xsi="http://www.w3.org/2001/XMLSchema-instance" version="1.9" junctionCornerDetail="5" rectangularLaneCut="true" limitTurnSpeed="5.50" xsi:noNamespaceSchemaLocation="http://sumo.dlr.de/xsd/net_file.xsd">
  <location netOffset="357.36,403.33" convBoundary="0.00,0.00,1013.80,545.84" origBoundary="0.000000,0.000000,0.000000,0.000000" projParameter="+proj=tmerc +lat_0=0 +lon_0=0 +k=1 +x_0=0 +y_0=0 +datum=WGS84 +units=m +geoidgrids=egm96_15.gtx +vunits=m +no_defs "/>
  <edge id=":1034_0" function="internal">
    <lane id=":1034_0_0" index="0" speed="13.89" length="44.66" width="0.63" shape="809.90,248.98 854.56,248.80">
      <param key="origId" value="1037_-9"/>
    </lane>
    <lane id=":1034_0_1" index="1" speed="13.89" length="44.66" width="0.50" shape="809.91,249.55 854.57,249.36">
      <param key="origId" value="1037_-8"/>
    </lane>
    <lane id=":1034_0_2" index="2" speed="13.89" length="44.66" width="3.50" shape="809.91,251.55 854.57,251.36">
      <param key="origId" value="1037_-7"/>
    </lane>
    <lane id=":1034_0_3" index="3" speed="13.89" length="44.66" width="3.50" shape="809.93,255.05 854.59,254.86">
      <param key="origId" value="1037_-6"/>
    </lane>
    <lane id=":1034_0_4" index="4" speed="13.89" length="44.66" width="3.50" shape="809.94,258.55 854.60,258.36">
      <param key="origId" value="1037_-5"/>
    </lane>
    <lane id=":1034_0_5" index="5" speed="13.89" length="44.66" width="3.50" shape="809.96,262.05 854.62,261.86">
      <param key="origId" value="1037_-4"/>
    </lane>
    <lane id=":1034_0_6" index="6" speed="13.89" length="44.66" width="3.50" shape="809.97,265.55 854.63,265.36">
      <param key="origId" value="1037_-3"/>
    </lane>
  </edge>
  <edge id=":1034_7" function="internal">
    <lane id=":1034_7_0" index="0" speed="13.89" length="43.49" width="3.50" shape="809.97,265.55 822.80,265.61 831.86,266.92 839.78,270.99 849.23,279.33">
      <param key="origId" value="1043_-3"/>
    </lane>
  </edge>
  <edge id=":1034_8" function="internal">
    <lane id=":1034_8_0" index="0" speed="13.89" length="44.66" width="0.50" shape="809.98,267.55 854.64,267.36">
      <param key="origId" value="1037_-2"/>
    </lane>
  </edge>
  <edge id=":1034_9" function="internal">
    <lane id=":1034_9_0" index="0" speed="13.89" length="41.90" width="0.50" shape="809.98,267.55 822.34,267.59 831.07,268.83 838.72,272.73 847.83,280.75">
      <param key="origId" value="1043_-2"/>
    </lane>
    <lane id=":1034_9_1" index="1" speed="13.89" length="41.45" width="0.63" shape="809.98,268.11 822.21,268.16 830.85,269.38 838.42,273.23 847.43,281.16">
      <param key="origId" value="1043_-1"/>
    </lane>
  </edge>
  <edge id=":1050_0" function="internal">
    <lane id=":1050_0_0" index="0" speed="13.89" length="30.02" width="0.63" shape="882.29,336.53 887.01,341.78 892.95,345.54 900.11,347.80 908.50,348.55">
      <param key="origId" value="1124_5"/>
    </lane>
    <lane id=":1050_0_1" index="1" speed="13.89" length="30.57" width="0.50" shape="881.82,336.85 886.63,342.21 892.68,346.05 899.97,348.35 908.50,349.12">
      <param key="origId" value="1124_4"/>
    </lane>
    <lane id=":1050_0_2" index="2" speed="13.89" length="32.52" width="3.50" shape="880.17,337.97 885.31,343.72 891.74,347.83 899.47,350.30 908.49,351.12">
      <param key="origId" value="1124_3"/>
    </lane>
  </edge>
  <edge id=":1050_3" function="internal">
    <lane id=":1050_3_0" index="0" speed="13.89" length="70.79" width="0.50" shape="837.71,349.09 908.50,349.12">
      <param key="origId" value="1083_-8"/>
    </lane>
    <lane id=":1050_3_1" index="1" speed="13.89" length="70.79" width="3.50" shape="837.70,351.09 908.49,351.12">
      <param key="origId" value="1083_-7"/>
    </lane>
    <lane id=":1050_3_2" index="2" speed="13.89" length="70.79" width="3.50" shape="837.70,354.59 908.49,354.62">
      <param key="origId" value="1083_-6"/>
    </lane>
    <lane id=":1050_3_3" index="3" speed="13.89" length="70.79" width="3.50" shape="837.70,358.09 908.49,358.12">
      <param key="origId" value="1083_-5"/>
    </lane>
    <lane id=":1050_3_4" index="4" speed="13.89" length="70.79" width="3.50" shape="837.70,361.59 908.49,361.62">
      <param key="origId" value="1083_-4"/>
    </lane>
    <lane id=":1050_3_5" index="5" speed="13.89" length="70.79" width="3.50" shape="837.70,365.09 908.49,365.12">
      <param key="origId" value="1083_-3"/>
    </lane>
  </edge>
  <edge id=":1050_9" function="internal">
    <lane id=":1050_9_0" index="0" speed="13.89" length="38.48" width="3.50" shape="837.70,365.09 848.30,365.99 857.55,368.69 865.46,373.19 872.03,379.49">
      <param key="origId" value="1051_-1"/>
    </lane>
  </edge>
  <edge id=":1050_10" function="internal">
    <lane id=":1050_10_0" index="0" speed="13.89" length="70.79" width="0.50" shape="837.70,367.09 908.49,367.12">
      <param key="origId" value="1083_-2"/>
    </lane>
  </edge>
  <edge id=":1050_11" function="internal">
    <lane id=":1050_11_0" index="0" speed="13.89" length="36.21" width="0.63" shape="837.70,367.65 847.71,368.50 856.44,371.03 863.89,375.23 870.05,381.12">
      <param key="origId" value="1052_-1"/>
    </lane>
  </edge>
  <edge id=":1128_0" function="internal">
    <lane id=":1128_0_0" index="0" speed="13.89" length="42.10" width="0.63" shape="274.61,270.45 232.51,270.55">
      <param key="origId" value="1129_7"/>
    </lane>
    <lane id=":1128_0_1" index="1" speed="13.89" length="42.10" width="0.50" shape="274.61,269.88 232.51,269.98">
      <param key="origId" value="1129_6"/>
    </lane>
    <lane id=":1128_0_2" index="2" speed="13.89" length="42.10" width="3.50" shape="274.61,267.88 232.51,267.98">
      <param key="origId" value="1129_5"/>
    </lane>
    <lane id=":1128_0_3" index="3" speed="13.89" length="42.10" width="3.50" shape="274.60,264.38 232.50,264.48">
      <param key="origId" value="1129_4"/>
    </lane>
    <lane id=":1128_0_4" index="4" speed="13.89" length="42.10" width="3.50" shape="274.59,260.88 232.49,260.98">
      <param key="origId" value="1129_3"/>
    </lane>
    <lane id=":1128_0_5" index="5" speed="13.89" length="42.10" width="3.50" shape="274.58,257.38 232.48,257.48">
      <param key="origId" value="1129_2"/>
    </lane>
  </edge>
  <edge id=":1128_6" function="internal">
    <lane id=":1128_6_0" index="0" speed="13.89" length="39.17" width="3.50" shape="269.75,243.14 260.40,250.11 252.83,253.24 244.40,254.03 232.47,253.98">
      <param key="origId" value="1139_3"/>
    </lane>
    <lane id=":1128_6_1" index="1" speed="13.89" length="39.17" width="0.50" shape="268.46,241.61 259.43,248.32 252.12,251.31 243.98,252.04 232.47,251.98">
      <param key="origId" value="1139_2"/>
    </lane>
    <lane id=":1128_6_2" index="2" speed="13.89" length="39.17" width="0.63" shape="268.10,241.18 259.16,247.81 251.92,250.76 243.86,251.48 232.47,251.41">
      <param key="origId" value="1139_1"/>
    </lane>
  </edge>
  <edge id=":1146_0" function="internal">
    <lane id=":1146_0_0" index="0" speed="13.89" length="69.19" width="0.63" shape="544.36,236.14 558.93,243.82 572.73,247.93 588.86,249.56 610.41,249.80">
      <param key="origId" value="1159_5"/>
    </lane>
    <lane id=":1146_0_1" index="1" speed="13.89" length="69.19" width="0.50" shape="544.07,236.63 558.66,244.31 572.52,248.45 588.75,250.12 610.41,250.36">
      <param key="origId" value="1159_4"/>
    </lane>
    <lane id=":1146_0_2" index="2" speed="13.89" length="69.19" width="3.50" shape="543.02,238.33 557.70,246.06 571.80,250.31 588.36,252.07 610.42,252.36">
      <param key="origId" value="1159_3"/>
    </lane>
  </edge>
  <edge id=":1146_3" function="internal">
    <lane id=":1146_3_0" index="0" speed="13.89" length="71.30" width="0.50" shape="539.11,250.66 610.41,250.36">
      <param key="origId" value="1149_-8"/>
    </lane>
    <lane id=":1146_3_1" index="1" speed="13.89" length="71.30" width="3.50" shape="539.12,252.66 610.42,252.36">
      <param key="origId" value="1149_-7"/>
    </lane>
    <lane id=":1146_3_2" index="2" speed="13.89" length="71.30" width="3.50" shape="539.13,256.16 610.43,255.86">
      <param key="origId" value="1149_-6"/>
    </lane>
    <lane id=":1146_3_3" index="3" speed="13.89" length="71.30" width="3.50" shape="539.15,259.66 610.44,259.36">
      <param key="origId" value="1149_-5"/>
    </lane>
    <lane id=":1146_3_4" index="4" speed="13.89" length="71.30" width="3.50" shape="539.16,263.16 610.46,262.86">
      <param key="origId" value="1149_-4"/>
    </lane>
    <lane id=":1146_3_5" index="5" speed="13.89" length="71.30" width="3.50" shape="539.17,266.66 610.47,266.36">
      <param key="origId" value="1149_-3"/>
    </lane>
    <lane id=":1146_3_6" index="6" speed="13.89" length="71.30" width="0.50" shape="539.18,268.65 610.48,268.36">
      <param key="origId" value="1149_-2"/>
    </lane>
    <lane id=":1146_3_7" index="7" speed="13.89" length="71.30" width="0.63" shape="539.18,269.22 610.48,268.93">
      <param key="origId" value="1149_-1"/>
    </lane>
  </edge>
  <edge id=":1162_0" function="internal">
    <lane id=":1162_0_0" index="0" speed="13.89" length="29.23" width="0.63" shape="511.77,429.40 482.54,429.29">
      <param key="origId" value="1164_-8"/>
    </lane>
    <lane id=":1162_0_1" index="1" speed="13.89" length="29.23" width="0.50" shape="511.77,428.83 482.54,428.72">
      <param key="origId" value="1164_-7"/>
    </lane>
    <lane id=":1162_0_2" index="2" speed="13.89" length="29.23" width="3.50" shape="511.78,426.83 482.55,426.72">
      <param key="origId" value="1164_-6"/>
      <param key="signalID" value="1238"/>
    </lane>
    <lane id=":1162_0_3" index="3" speed="13.89" length="29.23" width="3.50" shape="511.79,423.33 482.56,423.22">
      <param key="origId" value="1164_-5"/>
      <param key="signalID" value="1238"/>
    </lane>
    <lane id=":1162_0_4" index="4" speed="13.89" length="29.23" width="3.50" shape="511.80,419.83 482.57,419.72">
      <param key="origId" value="1164_-4"/>
      <param key="signalID" value="1238"/>
    </lane>
    <lane id=":1162_0_5" index="5" speed="13.89" length="29.23" width="3.50" shape="511.82,416.33 482.59,416.22">
      <param key="origId" value="1164_-3"/>
      <param key="signalID" value="1238"/>
    </lane>
    <lane id=":1162_0_6" index="6" speed="13.89" length="29.23" width="0.50" shape="511.82,414.33 482.59,414.22">
      <param key="origId" value="1164_-2"/>
    </lane>
  </edge>
  <edge id=":1162_7" function="internal">
    <lane id=":1162_7_0" index="0" speed="13.34" length="35.96" width="3.50" shape="502.07,399.94 499.12,411.68 494.88,420.05 489.36,425.07 482.55,426.72">
      <param key="origId" value="1175_1"/>
      <param key="signalID" value="1239"/>
    </lane>
    <lane id=":1162_7_1" index="1" speed="12.84" length="33.22" width="3.50" shape="502.07,399.94 499.35,410.15 495.19,417.43 489.59,421.79 482.56,423.22">
      <param key="origId" value="1176_1"/>
      <param key="signalID" value="1239"/>
    </lane>
    <lane id=":1162_7_2" index="2" speed="12.33" length="30.57" width="3.50" shape="502.07,399.94 499.57,408.62 495.49,414.81 489.82,418.51 482.57,419.72">
      <param key="origId" value="1180_4"/>
      <param key="signalID" value="1239"/>
    </lane>
    <lane id=":1162_7_3" index="3" speed="11.32" length="25.59" width="3.50" shape="498.62,399.34 496.53,406.75 493.16,412.03 488.51,415.19 482.59,416.22">
      <param key="origId" value="1180_3"/>
      <param key="signalID" value="1239"/>
    </lane>
    <lane id=":1162_7_4" index="4" speed="10.50" length="22.75" width="0.50" shape="496.65,399.01 494.79,405.68 491.82,410.44 487.76,413.29 482.59,414.22">
      <param key="origId" value="1180_2"/>
    </lane>
    <lane id=":1162_7_5" index="5" speed="10.32" length="21.94" width="0.63" shape="496.09,398.91 494.29,405.38 491.45,409.99 487.55,412.75 482.59,413.65">
      <param key="origId" value="1180_1"/>
      <param key="signalID" value="1239"/>
    </lane>
  </edge>
  <edge id=":1187_0" function="internal">
    <lane id=":1187_0_0" index="0" speed="13.89" length="55.65" width="0.63" shape="430.22,149.21 485.87,149.19">
      <param key="origId" value="1190_-9"/>
    </lane>
    <lane id=":1187_0_1" index="1" speed="13.89" length="55.65" width="0.50" shape="430.22,149.78 485.87,149.76">
      <param key="origId" value="1190_-8"/>
    </lane>
    <lane id=":1187_0_2" index="2" speed="13.89" length="55.65" width="3.50" shape="430.22,151.78 485.87,151.76">
      <param key="origId" value="1190_-7"/>
    </lane>
    <lane id=":1187_0_3" index="3" speed="13.89" length="55.65" width="3.50" shape="430.23,155.28 485.88,155.26">
      <param key="origId" value="1190_-6"/>
    </lane>
    <lane id=":1187_0_4" index="4" speed="13.89" length="55.65" width="3.50" shape="430.23,158.78 485.88,158.76">
      <param key="origId" value="1190_-5"/>
    </lane>
    <lane id=":1187_0_5" index="5" speed="13.89" length="55.65" width="3.50" shape="430.23,162.28 485.88,162.26">
      <param key="origId" value="1190_-4"/>
    </lane>
    <lane id=":1187_0_6" index="6" speed="13.89" length="55.65" width="3.50" shape="430.23,165.78 485.88,165.76">
      <param key="origId" value="1190_-3"/>
    </lane>
  </edge>
  <edge id=":1187_7" function="internal">
    <lane id=":1187_7_0" index="0" speed="13.89" length="54.55" width="3.50" shape="430.23,165.78 446.57,165.92 458.16,167.34 468.58,171.52 481.38,179.92">
      <param key="origId" value="1196_-3"/>
    </lane>
  </edge>
  <edge id=":1187_8" function="internal">
    <lane id=":1187_8_0" index="0" speed="13.89" length="55.65" width="0.50" shape="430.23,167.78 485.88,167.76">
      <param key="origId" value="1190_-2"/>
    </lane>
  </edge>
  <edge id=":1187_9" function="internal">
    <lane id=":1187_9_0" index="0" speed="13.89" length="53.32" width="0.50" shape="430.23,167.78 446.12,167.86 457.34,169.15 467.50,173.20 480.20,181.54">
      <param key="origId" value="1196_-2"/>
    </lane>
    <lane id=":1187_9_1" index="1" speed="13.89" length="52.97" width="0.63" shape="430.23,168.35 446.00,168.41 457.11,169.67 467.19,173.67 479.87,182.00">
      <param key="origId" value="1196_-1"/>
    </lane>
  </edge>
  <edge id=":1203_0" function="internal">
    <lane id=":1203_0_0" index="0" speed="13.89" length="35.78" width="0.63" shape="884.96,430.28 849.18,430.36">
      <param key="origId" value="1206_-9"/>
    </lane>
    <lane id=":1203_0_1" index="1" speed="13.89" length="35.78" width="0.50" shape="884.96,429.72 849.18,429.79">
      <param key="origId" value="1206_-8"/>
    </lane>
    <lane id=":1203_0_2" index="2" speed="13.89" length="35.78" width="3.50" shape="884.96,427.72 849.18,427.79">
      <param key="origId" value="1206_-7"/>
    </lane>
    <lane id=":1203_0_3" index="3" speed="13.89" length="35.78" width="3.50" shape="884.95,424.22 849.17,424.29">
      <param key="origId" value="1206_-6"/>
    </lane>
    <lane id=":1203_0_4" index="4" speed="13.89" length="35.78" width="3.50" shape="884.94,420.72 849.16,420.79">
      <param key="origId" value="1206_-5"/>
    </lane>
    <lane id=":1203_0_5" index="5" speed="13.89" length="35.78" width="3.50" shape="884.93,417.22 849.15,417.29">
      <param key="origId" value="1206_-4"/>
    </lane>
    <lane id=":1203_0_6" index="6" speed="13.89" length="35.78" width="3.50" shape="884.93,413.72 849.15,413.79">
      <param key="origId" value="1206_-3"/>
    </lane>
    <lane id=":1203_0_7" index="7" speed="13.89" length="35.78" width="0.50" shape="884.92,411.72 849.14,411.79">
      <param key="origId" value="1206_-2"/>
    </lane>
  </edge>
  <edge id=":1203_8" function="internal">
    <lane id=":1203_8_0" index="0" speed="13.89" length="32.75" width="3.50" shape="876.23,402.83 872.52,409.14 866.77,413.65 858.98,416.37 849.15,417.29">
      <param key="origId" value="1216_1"/>
    </lane>
    <lane id=":1203_8_1" index="1" speed="13.55" length="30.88" width="3.50" shape="876.23,402.83 873.01,407.61 867.42,411.03 859.47,413.09 849.15,413.79">
      <param key="origId" value="1218_3"/>
    </lane>
    <lane id=":1203_8_2" index="2" speed="12.87" length="28.47" width="0.50" shape="874.36,402.13 871.43,406.34 866.26,409.35 858.83,411.17 849.14,411.79">
      <param key="origId" value="1218_2"/>
    </lane>
    <lane id=":1203_8_3" index="3" speed="12.72" length="27.79" width="0.63" shape="873.82,401.93 870.99,405.98 865.93,408.88 858.64,410.63 849.14,411.23">
      <param key="origId" value="1218_1"/>
    </lane>
  </edge>
  <edge id=":15.14_0" function="internal">
    <lane id=":15.14_0_0" index="0" speed="13.89" length="9.45" width="0.63" shape="379.66,348.38 382.47,347.72 384.20,346.27 385.92,344.88 388.73,344.38"/>
    <lane id=":15.14_0_1" index="1" speed="13.89" length="9.45" width="0.50" shape="379.66,348.95 382.46,348.29 384.18,346.84 385.90,345.45 388.70,344.94"/>
    <lane id=":15.14_0_2" index="2" speed="13.89" length="9.45" width="3.50" shape="379.66,350.95 382.43,350.29 384.12,348.84 385.82,347.45 388.58,346.94"/>
    <lane id=":15.14_0_3" index="3" speed="13.89" length="9.45" width="3.50" shape="379.65,354.45 382.37,353.79 384.02,352.34 385.67,350.94 388.38,350.43"/>
    <lane id=":15.14_0_4" index="4" speed="13.89" length="9.45" width="3.50" shape="379.65,357.95 382.31,357.28 383.92,355.82 385.52,354.41 388.18,353.93"/>
    <lane id=":15.14_0_5" index="5" speed="13.89" length="9.45" width="3.50" shape="379.65,361.45 382.25,360.78 383.81,359.31 385.38,357.91 387.97,357.42"/>
    <lane id=":15.14_0_6" index="6" speed="13.89" length="9.45" width="0.50" shape="379.65,363.45 387.61,363.59"/>
    <lane id=":15.14_0_7" index="7" speed="13.89" length="9.45" width="0.63" shape="379.64,364.02 387.58,364.16"/>
  </edge>
  <edge id=":23.22_0" function="internal">
    <lane id=":23.22_0_0" index="0" speed="13.89" length="8.33" width="0.63" shape="332.91,270.31 330.34,270.86 328.72,272.04 327.10,273.13 324.55,273.46"/>
    <lane id=":23.22_0_1" index="1" speed="13.89" length="8.33" width="0.50" shape="332.90,269.75 330.36,270.30 328.75,271.47 327.14,272.57 324.60,272.89"/>
    <lane id=":23.22_0_2" index="2" speed="13.89" length="8.33" width="3.50" shape="332.90,267.75 330.40,268.30 328.83,269.47 327.26,270.57 324.77,270.90"/>
    <lane id=":23.22_0_3" index="3" speed="13.89" length="8.33" width="3.50" shape="332.89,264.25 330.48,264.80 328.98,265.97 327.47,267.07 325.07,267.41"/>
    <lane id=":23.22_0_4" index="4" speed="13.89" length="8.33" width="3.50" shape="332.88,260.75 330.56,261.30 329.12,262.47 327.69,263.58 325.38,263.93"/>
    <lane id=":23.22_0_5" index="5" speed="13.89" length="8.33" width="0.50" shape="332.88,258.75 330.79,258.75 329.36,258.71 327.93,258.62 325.85,258.45"/>
    <lane id=":23.22_0_6" index="6" speed="13.89" length="8.33" width="0.63" shape="332.88,258.18 330.80,258.18 329.38,258.15 327.97,258.06 325.90,257.88"/>
  </edge>
  <edge id=":268_0" function="internal">
    <lane id=":268_0_0" index="0" speed="13.89" length="42.24" width="0.63" shape="1032.82,337.91 1032.67,351.14 1031.93,360.20 1030.02,369.10 1026.33,381.80">
      <param key="origId" value="269_9"/>
    </lane>
    <lane id=":268_0_1" index="1" speed="13.89" length="42.24" width="0.50" shape="1032.25,337.91 1032.11,351.09 1031.37,360.12 1029.46,368.98 1025.79,381.64">
      <param key="origId" value="269_8"/>
    </lane>
    <lane id=":268_0_2" index="2" speed="13.89" length="42.24" width="3.50" shape="1030.25,337.90 1030.11,350.91 1029.38,359.83 1027.50,368.57 1023.87,381.07">
      <param key="origId" value="269_7"/>
    </lane>
    <lane id=":268_0_3" index="3" speed="13.89" length="42.24" width="3.50" shape="1026.75,337.89 1026.61,350.60 1025.90,359.31 1024.06,367.86 1020.52,380.06">
      <param key="origId" value="269_6"/>
    </lane>
    <lane id=":268_0_4" index="4" speed="13.89" length="42.24" width="3.50" shape="1023.25,337.88 1023.11,350.29 1022.42,358.80 1020.62,367.14 1017.17,379.06">
      <param key="origId" value="269_5"/>
    </lane>
    <lane id=":268_0_5" index="5" speed="13.89" length="42.24" width="3.50" shape="1019.75,337.87 1019.62,349.98 1018.94,358.28 1017.19,366.43 1013.81,378.06">
      <param key="origId" value="269_4"/>
    </lane>
    <lane id=":268_0_6" index="6" speed="13.89" length="42.24" width="3.50" shape="1016.25,337.86 1016.12,349.67 1015.46,357.77 1013.75,365.71 1010.46,377.06">
      <param key="origId" value="269_3"/>
    </lane>
    <lane id=":268_0_7" index="7" speed="13.89" length="42.24" width="0.50" shape="1014.25,337.85 1014.12,349.49 1013.47,357.47 1011.79,365.30 1008.54,376.49">
      <param key="origId" value="269_2"/>
    </lane>
  </edge>
  <edge id=":268_8" function="internal">
    <lane id=":268_8_0" index="0" speed="12.52" length="9.48" width="3.50" shape="1004.25,351.17 1013.61,352.69">
      <param key="origId" value="316_-1"/>
      <param key="signalID" value="1224"/>
    </lane>
    <lane id=":268_8_1" index="1" speed="11.53" length="9.20" width="3.50" shape="1004.25,354.67 1013.33,356.18">
      <param key="origId" value="311_-1"/>
      <param key="signalID" value="1224"/>
    </lane>
    <lane id=":268_8_2" index="2" speed="10.45" length="8.65" width="3.50" shape="1004.25,358.17 1012.58,359.60 1012.73,359.73">
      <param key="origId" value="307_-1"/>
      <param key="signalID" value="1224"/>
    </lane>
    <lane id=":268_8_3" index="3" speed="9.23" length="8.13" width="3.50" shape="1004.25,361.67 1010.27,362.69 1011.81,364.01">
      <param key="origId" value="297_-1"/>
      <param key="signalID" value="1224"/>
    </lane>
    <lane id=":268_8_4" index="4" speed="7.84" length="7.38" width="3.50" shape="1004.25,365.17 1008.30,365.91 1010.68,368.14">
      <param key="origId" value="322_-1"/>
      <param key="signalID" value="1224"/>
    </lane>
    <lane id=":268_8_5" index="5" speed="6.61" length="9.85" width="0.50" shape="1004.25,367.17 1007.17,367.75 1008.86,369.50 1009.32,372.41 1009.04,373.87">
      <param key="origId" value="300_2"/>
      <param key="signalID" value="1224"/>
    </lane>
    <lane id=":268_8_6" index="6" speed="6.33" length="11.39" width="0.63" shape="1004.25,367.74 1006.85,368.27 1008.34,369.88 1008.73,372.57 1008.00,376.32">
      <param key="origId" value="300_1"/>
      <param key="signalID" value="1223"/>
    </lane>
  </edge>
  <edge id=":268_15" function="internal">
    <lane id=":268_15_0" index="0" speed="12.52" length="34.69" width="3.50" shape="1013.61,352.69 1016.50,353.17 1023.65,358.98 1026.00,368.37 1023.87,381.07">
      <param key="origId" value="316_-1"/>
      <param key="signalID" value="1224"/>
    </lane>
  </edge>
  <edge id=":268_16" function="internal">
    <lane id=":268_16_0" index="0" speed="11.53" length="28.06" width="3.50" shape="1013.33,356.18 1014.54,356.38 1020.47,361.35 1022.36,369.32 1020.52,380.06">
      <param key="origId" value="311_-1"/>
      <param key="signalID" value="1224"/>
    </lane>
  </edge>
  <edge id=":268_17" function="internal">
    <lane id=":268_17_0" index="0" speed="10.45" length="21.69" width="3.50" shape="1012.73,359.73 1017.29,363.71 1018.72,370.28 1017.17,379.06">
      <param key="origId" value="307_-1"/>
      <param key="signalID" value="1224"/>
    </lane>
  </edge>
  <edge id=":268_18" function="internal">
    <lane id=":268_18_0" index="0" speed="9.23" length="15.24" width="3.50" shape="1011.81,364.01 1013.87,365.77 1015.05,370.89 1013.81,378.06">
      <param key="origId" value="297_-1"/>
      <param key="signalID" value="1224"/>
    </lane>
  </edge>
  <edge id=":268_19" function="internal">
    <lane id=":268_19_0" index="0" speed="7.84" length="9.07" width="3.50" shape="1010.68,368.14 1011.40,371.86 1010.46,377.06">
      <param key="origId" value="322_-1"/>
      <param key="signalID" value="1224"/>
    </lane>
  </edge>
  <edge id=":268_20" function="internal">
    <lane id=":268_20_0" index="0" speed="6.61" length="2.66" width="0.50" shape="1009.04,373.87 1008.54,376.49">
      <param key="origId" value="300_2"/>
      <param key="signalID" value="1224"/>
    </lane>
  </edge>
  <edge id=":29.28_0" function="internal">
    <lane id=":29.28_0_0" index="0" speed="13.89" length="8.96" width="0.63" shape="635.74,348.42 638.37,347.86 640.02,346.65 641.67,345.46 644.30,345.01"/>
    <lane id=":29.28_0_1" index="1" speed="13.89" length="8.96" width="0.50" shape="635.74,348.99 638.37,348.43 640.01,347.21 641.66,346.03 644.29,345.57"/>
    <lane id=":29.28_0_2" index="2" speed="13.89" length="8.96" width="3.50" shape="635.74,350.99 638.35,350.43 639.98,349.21 641.61,348.03 644.22,347.57"/>
    <lane id=":29.28_0_3" index="3" speed="13.89" length="8.96" width="3.50" shape="635.74,354.49 638.32,353.93 639.93,352.71 641.53,351.53 644.11,351.07"/>
    <lane id=":29.28_0_4" index="4" speed="13.89" length="8.96" width="3.50" shape="635.73,357.99 638.28,357.43 639.87,356.21 641.45,355.03 644.00,354.57"/>
    <lane id=":29.28_0_5" index="5" speed="13.89" length="8.96" width="3.50" shape="635.73,361.49 638.25,360.93 639.81,359.71 641.37,358.53 643.89,358.07"/>
    <lane id=":29.28_0_6" index="6" speed="13.89" length="8.96" width="0.50" shape="635.73,363.49 643.72,363.56"/>
    <lane id=":29.28_0_7" index="7" speed="13.89" length="8.96" width="0.64" shape="635.73,364.06 643.70,364.13"/>
  </edge>
  <edge id=":332_0" function="internal">
    <lane id=":332_0_0" index="0" speed="13.89" length="48.23" width="0.63" shape="1031.72,234.65 1032.25,282.87">
      <param key="origId" value="333_9"/>
    </lane>
    <lane id=":332_0_1" index="1" speed="13.89" length="48.23" width="0.50" shape="1031.16,234.65 1031.68,282.88">
      <param key="origId" value="333_8"/>
    </lane>
    <lane id=":332_0_2" index="2" speed="13.89" length="48.23" width="3.50" shape="1029.16,234.67 1029.68,282.90">
      <param key="origId" value="333_7"/>
    </lane>
    <lane id=":332_0_3" index="3" speed="13.89" length="48.23" width="3.50" shape="1025.66,234.71 1026.18,282.94">
      <param key="origId" value="333_6"/>
    </lane>
    <lane id=":332_0_4" index="4" speed="13.89" length="48.23" width="3.50" shape="1022.16,234.75 1022.68,282.98">
      <param key="origId" value="333_5"/>
    </lane>
    <lane id=":332_0_5" index="5" speed="13.89" length="48.23" width="3.50" shape="1018.66,234.79 1019.18,283.02">
      <param key="origId" value="333_4"/>
    </lane>
    <lane id=":332_0_6" index="6" speed="13.89" length="48.23" width="3.50" shape="1015.16,234.83 1015.68,283.05">
      <param key="origId" value="333_3"/>
    </lane>
    <lane id=":332_0_7" index="7" speed="13.89" length="48.23" width="0.50" shape="1013.16,234.85 1013.68,283.08">
      <param key="origId" value="333_2"/>
    </lane>
  </edge>
  <edge id=":332_8" function="internal">
    <lane id=":332_8_0" index="0" speed="13.89" length="14.80" width="3.50" shape="998.63,250.77 1012.08,252.73 1013.11,253.37">
      <param key="origId" value="391_-1"/>
      <param key="signalID" value="1226"/>
    </lane>
    <lane id=":332_8_1" index="1" speed="13.89" length="15.10" width="3.50" shape="998.65,254.27 1010.58,256.02 1013.15,257.64">
      <param key="origId" value="375_-1"/>
      <param key="signalID" value="1226"/>
    </lane>
    <lane id=":332_8_2" index="2" speed="13.12" length="15.41" width="3.50" shape="998.66,257.77 1009.07,259.31 1013.20,261.92">
      <param key="origId" value="379_-1"/>
      <param key="signalID" value="1226"/>
    </lane>
    <lane id=":332_8_3" index="3" speed="12.19" length="15.73" width="3.50" shape="998.68,261.27 1007.56,262.60 1013.25,266.23">
      <param key="origId" value="369_-1"/>
      <param key="signalID" value="1226"/>
    </lane>
    <lane id=":332_8_4" index="4" speed="11.17" length="17.80" width="3.50" shape="998.69,264.77 1006.05,265.89 1011.33,269.31 1013.32,272.85">
      <param key="origId" value="384_-1"/>
      <param key="signalID" value="1226"/>
    </lane>
    <lane id=":332_8_5" index="5" speed="10.35" length="23.24" width="0.50" shape="998.70,266.77 1005.19,267.77 1009.85,270.82 1012.68,275.92 1013.41,281.14">
      <param key="origId" value="361_2"/>
      <param key="signalID" value="1226"/>
    </lane>
    <lane id=":332_8_6" index="6" speed="10.17" length="24.28" width="0.63" shape="998.70,267.34 1004.94,268.30 1009.42,271.25 1012.15,276.17 1013.11,283.08">
      <param key="origId" value="361_1"/>
      <param key="signalID" value="1225"/>
    </lane>
  </edge>
  <edge id=":332_15" function="internal">
    <lane id=":332_15_0" index="0" speed="13.89" length="36.07" width="3.50" shape="1013.11,253.37 1021.74,258.74 1027.61,268.80 1029.68,282.90">
      <param key="origId" value="391_-1"/>
      <param key="signalID" value="1226"/>
    </lane>
  </edge>
  <edge id=":332_16" function="internal">