<?xml version="1.0" encoding="UTF-8"?>

<!-- generated on 01/02/21 21:04:58 by Eclipse SUMO netedit Version 1.8.0
<configuration xmlns:xsi="http://www.w3.org/2001/XMLSchema-instance" xsi:noNamespaceSchemaLocation="http://sumo.dlr.de/xsd/netconvertConfiguration.xsd">

    <input>
        <sumo-net-file value="D:\CDA%20Project\PlatooningCodesDec18\MergeLaneRamp\MergeLaneProbIDMM.net.xml"/>
    </input>

    <output>
        <output-file value="D:\CDA%20Project\PlatooningCodesDec18\MergeLaneRamp\MergeLaneProbIDMM.net.xml"/>
    </output>

    <processing>
        <geometry.min-radius.fix.railways value="false"/>
        <geometry.max-grade.fix value="false"/>
        <offset.disable-normalization value="true"/>
        <lefthand value="false"/>
    </processing>

    <junctions>
        <no-turnarounds value="true"/>
        <junctions.corner-detail value="5"/>
        <junctions.limit-turn-speed value="5.5"/>
        <rectangular-lane-cut value="false"/>
    </junctions>

    <pedestrian>
        <walkingareas value="false"/>
    </pedestrian>

    <netedit>
        <route-files value="D:\CDA%20Project\PlatooningCodesDec18\MergeLaneRamp\MergeLaneProbIDMM.rou.xml"/>
    </netedit>

    <report>
        <aggregate-warnings value="5"/>
    </report>
      

</configuration>
-->

<routes xmlns:xsi="http://www.w3.org/2001/XMLSchema-instance" xsi:noNamespaceSchemaLocation="http://sumo.dlr.de/xsd/routes_file.xsd">
    <vType id="vType_0" laneChangeModel="SL2015" lcSublane="100" minGapLat="0.80" lcPushy="0" lcPushyGap="0.8" lcAssertive="1.5" minGap="0.00" speedFactor="normc(1.00,0.00)" vClass="passenger" lcTimeToImpatience="300" carFollowModel="IDMM" tau="0.6"/>
    <flow id="flow_0" begin="0.00" departLane="random" departSpeed="31.29" from="gneE0" to="gneE5" via="gneE4" end="4800.00" vehsPerHour="4000.00" type="vType_0"/>
    <flow id="flow_1" color= "0,255,0" begin="0.00" departLane="random" departSpeed="22.00" from="gneE1" to="gneE5" via="gneE4" end="4800.00" vehsPerHour="800.00" type="DEFAULT_VEHTYPE"/>
</routes>
