<?xml version="1.0" encoding="UTF-8"?>

<!-- generated on 07/31/20 12:34:44 by Eclipse SUMO netedit Version 1.5.0
<configuration xmlns:xsi="http://www.w3.org/2001/XMLSchema-instance" xsi:noNamespaceSchemaLocation="http://sumo.dlr.de/xsd/netconvertConfiguration.xsd">

    <input>
        <sumo-net-file value="D:\Python\Merge%20Lane%20problem\MergeLaneRamp\MergeLaneProb.net.xml"/>
    </input>

    <output>
        <output-file value="D:\Python\Merge%20Lane%20problem\MergeLaneRamp\MergeLaneProb.net.xml"/>
    </output>

    <processing>
        <geometry.min-radius.fix.railways value="false"/>
        <geometry.max-grade.fix value="false"/>
        <offset.disable-normalization value="true"/>
        <lefthand value="false"/>
    </processing>

    <junctions>
        <no-turnarounds value="true"/>
        <junctions.corner-detail value="5"/>
        <junctions.limit-turn-speed value="5.5"/>
        <rectangular-lane-cut value="false"/>
    </junctions>

    <pedestrian>
        <walkingareas value="false"/>
    </pedestrian>

    <netedit>
        <route-files value="D:\Python\Merge%20Lane%20problem\MergeLaneRamp\MergeLaneProb.rou.xml"/>
    </netedit>

    <report>
        <aggregate-warnings value="5"/>
    </report>

</configuration>
-->

<routes xmlns:xsi="http://www.w3.org/2001/XMLSchema-instance" xsi:noNamespaceSchemaLocation="http://sumo.dlr.de/xsd/routes_file.xsd">
    <flow id="flow_0" begin="0.00" departLane="random" departSpeed="31.29" from="gneE0" to="gneE5" via="gneE4" end="4800.00" vehsPerHour="4000.00"/>
</routes>
