<?xml version="1.0" encoding="UTF-8"?>

<!-- generated on 12/14/20 19:57:53 by Eclipse SUMO GUI Version 1.8.0
-->

<configuration xmlns:xsi="http://www.w3.org/2001/XMLSchema-instance" xsi:noNamespaceSchemaLocation="http://sumo.dlr.de/xsd/sumoConfiguration.xsd">

    <input>
        <net-file value="MergeLaneProb.net.xml"/>
        <route-files value="MergeLaneProb5vehicles.rou.xml"/>
    </input>

    <time>
        <begin value="0"/>
        <end value="10000"/>
    </time>

</configuration>
